1657645724.932s 1 https://api.dandiarchive.org/api/zarr/87e4d0d7-0516-456b-a9d0-7ae20bdb1e72.zarr/0/0/0/3/11/267
1657645724.832379s 1 https://dandiarchive.s3.amazonaws.com/zarr/87e4d0d7-0516-456b-a9d0-7ae20bdb1e72/0/0/0/3/11/267?versionId=MT3DQB7Woco34Ng6C1oVM8JGQ7vN0Jut
